Version 4
SHEET 1 880 680
WIRE 448 96 112 96
WIRE 688 96 656 96
WIRE 448 144 448 96
WIRE 544 224 496 224
WIRE 544 240 544 224
WIRE 448 336 448 240
WIRE 544 336 544 320
WIRE 544 336 448 336
WIRE 448 368 448 336
WIRE 608 368 448 368
WIRE 544 448 496 448
WIRE 544 464 544 448
WIRE 448 560 448 464
WIRE 544 560 544 544
WIRE 544 560 448 560
WIRE 448 624 448 560
WIRE 448 624 112 624
FLAG 608 368 O
IOPIN 608 368 BiDir
FLAG 112 96 A
IOPIN 112 96 BiDir
FLAG 112 624 B
IOPIN 112 624 BiDir
FLAG 656 96 S
IOPIN 656 96 In
SYMBOL bv 544 224 R0
SYMATTR InstName B1
SYMATTR Value V=v(S)
SYMBOL bv 544 448 R0
SYMATTR InstName B2
SYMATTR Value V=1-v(S)
SYMBOL iSW 448 208 M0
WINDOW 0 50 -18 Left 2
SYMATTR InstName Q1
SYMATTR SpiceLine Ron=Rsw
SYMBOL iSW 448 432 M0
WINDOW 0 54 0 Left 2
SYMATTR InstName Q2
SYMATTR SpiceLine Ron=Rsw
