Version 4
SHEET 1 4616 1844
WIRE 2080 -1392 2048 -1392
WIRE 2208 -1392 2160 -1392
WIRE 2256 -1392 2208 -1392
WIRE 2576 -1392 2512 -1392
WIRE 2640 -1392 2576 -1392
WIRE 2960 -1392 2896 -1392
WIRE 3024 -1392 2960 -1392
WIRE 3344 -1392 3280 -1392
WIRE 3408 -1392 3344 -1392
WIRE 3728 -1392 3664 -1392
WIRE 3792 -1392 3728 -1392
WIRE 1744 -1376 1712 -1376
WIRE 1776 -1376 1744 -1376
WIRE 1920 -1376 1888 -1376
WIRE 1920 -1344 1888 -1344
WIRE 2048 -1328 2048 -1392
WIRE 2048 -1328 2016 -1328
WIRE 1920 -1312 1888 -1312
WIRE 2048 -1280 2048 -1328
WIRE 2080 -1280 2048 -1280
WIRE 2208 -1280 2160 -1280
WIRE 2256 -1280 2208 -1280
WIRE 2576 -1280 2512 -1280
WIRE 2640 -1280 2576 -1280
WIRE 2960 -1280 2896 -1280
WIRE 3024 -1280 2960 -1280
WIRE 3344 -1280 3280 -1280
WIRE 3408 -1280 3344 -1280
WIRE 3728 -1280 3664 -1280
WIRE 3792 -1280 3728 -1280
WIRE 4016 -1280 3920 -1280
WIRE 4144 -1280 4096 -1280
WIRE 2336 -1216 2336 -1248
WIRE 2384 -1216 2384 -1248
WIRE 2432 -1216 2432 -1248
WIRE 2720 -1216 2720 -1248
WIRE 2768 -1216 2768 -1248
WIRE 2816 -1216 2816 -1248
WIRE 3104 -1216 3104 -1248
WIRE 3152 -1216 3152 -1248
WIRE 3200 -1216 3200 -1248
WIRE 3488 -1216 3488 -1248
WIRE 3536 -1216 3536 -1248
WIRE 3584 -1216 3584 -1248
WIRE 3856 -1216 3856 -1248
WIRE 2208 -784 2128 -784
WIRE 2256 -784 2208 -784
WIRE 2576 -784 2512 -784
WIRE 2640 -784 2576 -784
WIRE 2960 -784 2896 -784
WIRE 3024 -784 2960 -784
WIRE 3344 -784 3280 -784
WIRE 3408 -784 3344 -784
WIRE 3728 -784 3664 -784
WIRE 3760 -784 3728 -784
WIRE 2128 -768 2128 -784
WIRE 2128 -672 2128 -688
WIRE 2208 -672 2128 -672
WIRE 2256 -672 2208 -672
WIRE 2576 -672 2512 -672
WIRE 2640 -672 2576 -672
WIRE 2960 -672 2896 -672
WIRE 3024 -672 2960 -672
WIRE 3344 -672 3280 -672
WIRE 3408 -672 3344 -672
WIRE 3728 -672 3664 -672
WIRE 4016 -672 3728 -672
WIRE 4144 -672 4096 -672
WIRE 2128 -640 2128 -672
WIRE 2336 -608 2336 -640
WIRE 2384 -608 2384 -640
WIRE 2432 -608 2432 -640
WIRE 2720 -608 2720 -640
WIRE 2768 -608 2768 -640
WIRE 2816 -608 2816 -640
WIRE 3104 -608 3104 -640
WIRE 3152 -608 3152 -640
WIRE 3200 -608 3200 -640
WIRE 3488 -608 3488 -640
WIRE 3536 -608 3536 -640
WIRE 3584 -608 3584 -640
FLAG 1920 -1376 DPA
FLAG 1920 -1344 D0A
FLAG 1920 -1312 DNA
FLAG 1712 -1216 0
FLAG 1744 -1376 DA
FLAG 2336 -1216 DPA
FLAG 2384 -1216 D0A
FLAG 2432 -1216 DNA
FLAG 2016 -1328 0
FLAG 4144 -1280 0
FLAG 2720 -1216 DPA
FLAG 2768 -1216 D0A
FLAG 2816 -1216 DNA
FLAG 3104 -1216 DPA
FLAG 3152 -1216 D0A
FLAG 3200 -1216 DNA
FLAG 3488 -1216 DPA
FLAG 3536 -1216 D0A
FLAG 3584 -1216 DNA
FLAG 3856 -1216 DA
FLAG 2336 -608 DPA
FLAG 2384 -608 D0A
FLAG 2432 -608 DNA
FLAG 2128 -640 0
FLAG 4144 -672 0
FLAG 2720 -608 DPA
FLAG 2768 -608 D0A
FLAG 2816 -608 DNA
FLAG 3104 -608 DPA
FLAG 3152 -608 D0A
FLAG 3200 -608 DNA
FLAG 3488 -608 DPA
FLAG 3536 -608 D0A
FLAG 3584 -608 DNA
FLAG 2208 -1392 HA01
FLAG 2576 -1392 HA12
FLAG 2960 -1392 HA23
FLAG 3344 -1392 HA34
FLAG 3728 -1392 HA45
FLAG 2208 -1280 LA01
FLAG 2576 -1280 LA12
FLAG 2960 -1280 LA23
FLAG 3344 -1280 LA34
FLAG 3728 -1280 LA45
FLAG 2208 -784 HC01
FLAG 2576 -784 HC12
FLAG 2960 -784 HC23
FLAG 3344 -784 HC34
FLAG 3728 -784 HC45
FLAG 2208 -672 LC01
FLAG 2576 -672 LC12
FLAG 2960 -672 LC23
FLAG 3344 -672 LC34
FLAG 3728 -672 LC45
SYMBOL voltage 1712 -1392 M0
WINDOW 0 24 16 Invisible 2
WINDOW 3 39 54 Left 2
SYMATTR InstName V1
SYMATTR Value SINE(0 {ma} {f1} 0 0 180)
SYMBOL voltage 1712 -1312 M0
WINDOW 0 24 16 Invisible 2
WINDOW 3 39 53 Left 2
SYMATTR InstName V7
SYMATTR Value SINE(0 {0*ma/6} {3*f1} 0 0 180)
SYMBOL PN_average_modulator 1824 -1344 R0
WINDOW 0 8 -56 Invisible 2
SYMATTR InstName X2
SYMBOL bv 2176 -1392 M270
WINDOW 0 32 56 VTop 2
WINDOW 3 -32 56 VBottom 2
SYMATTR InstName VgA1
SYMATTR Value V={Vdc/2}
SYMBOL PN_average_model 2384 -1344 R0
SYMATTR InstName XA1
SYMATTR SpiceLine C={C*4} RP={RP/4} R0H={R0H/4} R0L={R0L/4} RN={RN/4}
SYMBOL current 4016 -1280 M90
WINDOW 123 0 0 Left 2
WINDOW 39 0 0 Left 2
WINDOW 3 52 -137 VRight 2
WINDOW 0 -53 -4 VRight 2
SYMATTR Value SINE(0 {16*sqrt(2)} 50 0 0 170)
SYMATTR InstName ILoadA
SYMBOL PN_average_model 2768 -1344 R0
SYMATTR InstName XA2
SYMATTR SpiceLine C={C*3} RP={RP/3} R0H={R0H/3} R0L={R0L/3} RN={RN/3}
SYMBOL PN_average_model 3152 -1344 R0
SYMATTR InstName XA3
SYMATTR SpiceLine C={C*2} RP={RP/2} R0H={R0H/2} R0L={R0L/2} RN={RN/2}
SYMBOL PN_average_model 3536 -1344 R0
SYMATTR InstName XA4
SYMATTR SpiceLine C={C} RP={RP} R0H={R0H} R0L={R0L} RN={RN}
SYMBOL 2L_average_model 3856 -1360 R0
SYMATTR InstName XA5
SYMBOL bv 2128 -784 M0
SYMATTR InstName VgC
SYMATTR Value V={Vdc}
SYMBOL PN_average_model 2384 -736 R0
SYMATTR InstName XC1
SYMATTR SpiceLine C={C*4} RP={RP/4} R0H={R0H/4} R0L={R0L/4} RN={RN/4}
SYMBOL current 4016 -672 M90
WINDOW 123 0 0 Left 2
WINDOW 39 0 0 Left 2
WINDOW 3 52 -137 VRight 2
WINDOW 0 -53 -4 VRight 2
SYMATTR Value SINE(0 {16*sqrt(2)} 50 0 0 170)
SYMATTR InstName ILoadC
SYMBOL PN_average_model 2768 -736 R0
SYMATTR InstName XC2
SYMATTR SpiceLine C={C*3} RP={RP/3} R0H={R0H/3} R0L={R0L/3} RN={RN/3}
SYMBOL PN_average_model 3152 -736 R0
SYMATTR InstName XC3
SYMATTR SpiceLine C={C*2} RP={RP/2} R0H={R0H/2} R0L={R0L/2} RN={RN/2}
SYMBOL PN_average_model 3536 -736 R0
SYMATTR InstName XC4
SYMATTR SpiceLine C={C} RP={RP} R0H={R0H} R0L={R0L} RN={RN}
SYMBOL bv 2064 -1280 M90
WINDOW 0 -32 56 VBottom 2
WINDOW 3 32 56 VTop 2
SYMATTR InstName VgA2
SYMATTR Value V={Vdc/2}
TEXT 1480 -1000 Left 2 !.param Ts=50us
TEXT 1480 -1096 Left 2 !.tran 0 80m 40m
TEXT 1480 -1024 Left 2 !.param Vdc=400
TEXT 1480 -784 Left 2 !.param ma=0.62*k f1=50 k=2/sqrt(3)
TEXT 1480 -928 Left 2 !.param Rsw=100m
TEXT 1480 -904 Left 2 !.param RP=2*Rsw
TEXT 1480 -832 Left 2 !.param RN=2*Rsw
TEXT 1480 -880 Left 2 !.param R0H=2*Rsw
TEXT 1480 -856 Left 2 !.param R0L=Rsw
TEXT 1480 -976 Left 2 !.param C=100u
TEXT 1480 -1072 Left 2 !.options reltol=1e-9
