Version 4
SHEET 1 4616 1844
WIRE 2272 -1392 2208 -1392
WIRE 2576 -1392 2528 -1392
WIRE 1744 -1376 1712 -1376
WIRE 1776 -1376 1744 -1376
WIRE 1920 -1376 1888 -1376
WIRE 2208 -1376 2208 -1392
WIRE 1920 -1344 1888 -1344
WIRE 1920 -1312 1888 -1312
WIRE 2208 -1280 2208 -1296
WIRE 2272 -1280 2208 -1280
WIRE 2576 -1280 2528 -1280
WIRE 3824 -1280 2704 -1280
WIRE 3904 -1280 3824 -1280
WIRE 4032 -1280 3984 -1280
WIRE 2208 -1248 2208 -1280
WIRE 2352 -1216 2352 -1248
WIRE 2400 -1216 2400 -1248
WIRE 2448 -1216 2448 -1248
WIRE 2640 -1216 2640 -1248
WIRE 2272 -1088 2208 -1088
WIRE 2576 -1088 2528 -1088
WIRE 2880 -1088 2832 -1088
WIRE 2208 -1072 2208 -1088
WIRE 2208 -976 2208 -992
WIRE 2272 -976 2208 -976
WIRE 2576 -976 2528 -976
WIRE 2880 -976 2832 -976
WIRE 3824 -976 3008 -976
WIRE 3904 -976 3824 -976
WIRE 4032 -976 3984 -976
WIRE 2208 -944 2208 -976
WIRE 2352 -912 2352 -944
WIRE 2400 -912 2400 -944
WIRE 2448 -912 2448 -944
WIRE 2656 -912 2656 -944
WIRE 2704 -912 2704 -944
WIRE 2752 -912 2752 -944
WIRE 2944 -912 2944 -944
WIRE 2272 -784 2208 -784
WIRE 2576 -784 2528 -784
WIRE 2880 -784 2832 -784
WIRE 3184 -784 3136 -784
WIRE 2208 -768 2208 -784
WIRE 2208 -672 2208 -688
WIRE 2272 -672 2208 -672
WIRE 2576 -672 2528 -672
WIRE 2880 -672 2832 -672
WIRE 3184 -672 3136 -672
WIRE 3824 -672 3312 -672
WIRE 3904 -672 3824 -672
WIRE 4032 -672 3984 -672
WIRE 2208 -640 2208 -672
WIRE 2352 -608 2352 -640
WIRE 2400 -608 2400 -640
WIRE 2448 -608 2448 -640
WIRE 2656 -608 2656 -640
WIRE 2704 -608 2704 -640
WIRE 2752 -608 2752 -640
WIRE 2960 -608 2960 -640
WIRE 3008 -608 3008 -640
WIRE 3056 -608 3056 -640
WIRE 3248 -608 3248 -640
WIRE 2272 -480 2208 -480
WIRE 2576 -480 2528 -480
WIRE 2880 -480 2832 -480
WIRE 3184 -480 3136 -480
WIRE 3488 -480 3440 -480
WIRE 2208 -464 2208 -480
WIRE 2208 -368 2208 -384
WIRE 2272 -368 2208 -368
WIRE 2576 -368 2528 -368
WIRE 2880 -368 2832 -368
WIRE 3184 -368 3136 -368
WIRE 3488 -368 3440 -368
WIRE 3824 -368 3616 -368
WIRE 3904 -368 3824 -368
WIRE 4032 -368 3984 -368
WIRE 2208 -336 2208 -368
WIRE 2352 -304 2352 -336
WIRE 2400 -304 2400 -336
WIRE 2448 -304 2448 -336
WIRE 2656 -304 2656 -336
WIRE 2704 -304 2704 -336
WIRE 2752 -304 2752 -336
WIRE 2960 -304 2960 -336
WIRE 3008 -304 3008 -336
WIRE 3056 -304 3056 -336
WIRE 3264 -304 3264 -336
WIRE 3312 -304 3312 -336
WIRE 3360 -304 3360 -336
WIRE 3552 -304 3552 -336
WIRE 2272 -176 2208 -176
WIRE 2576 -176 2528 -176
WIRE 2880 -176 2832 -176
WIRE 3184 -176 3136 -176
WIRE 3488 -176 3440 -176
WIRE 2208 -160 2208 -176
WIRE 2208 -64 2208 -80
WIRE 2272 -64 2208 -64
WIRE 2576 -64 2528 -64
WIRE 2880 -64 2832 -64
WIRE 3184 -64 3136 -64
WIRE 3824 -64 3440 -64
WIRE 3904 -64 3824 -64
WIRE 4032 -64 3984 -64
WIRE 2208 -32 2208 -64
WIRE 2352 0 2352 -32
WIRE 2400 0 2400 -32
WIRE 2448 0 2448 -32
WIRE 2656 0 2656 -32
WIRE 2704 0 2704 -32
WIRE 2752 0 2752 -32
WIRE 2960 0 2960 -32
WIRE 3008 0 3008 -32
WIRE 3056 0 3056 -32
WIRE 3264 0 3264 -32
WIRE 3312 0 3312 -32
WIRE 3360 0 3360 -32
FLAG 2352 -1216 DPA
FLAG 2400 -1216 D0A
FLAG 2448 -1216 DNA
FLAG 2208 -1248 0
FLAG 1920 -1376 DPA
FLAG 1920 -1344 D0A
FLAG 1920 -1312 DNA
FLAG 1712 -1216 0
FLAG 1744 -1376 DA
FLAG 4032 -1280 0
FLAG 3824 -1280 OUTavg
FLAG 2352 -912 DPA
FLAG 2400 -912 D0A
FLAG 2448 -912 DNA
FLAG 2208 -944 0
FLAG 4032 -976 0
FLAG 3824 -976 OUTavg1
FLAG 2656 -912 DPA
FLAG 2704 -912 D0A
FLAG 2752 -912 DNA
FLAG 2352 -608 DPA
FLAG 2400 -608 D0A
FLAG 2448 -608 DNA
FLAG 2208 -640 0
FLAG 4032 -672 0
FLAG 3824 -672 OUTavg2
FLAG 2656 -608 DPA
FLAG 2704 -608 D0A
FLAG 2752 -608 DNA
FLAG 2960 -608 DPA
FLAG 3008 -608 D0A
FLAG 3056 -608 DNA
FLAG 2352 -304 DPA
FLAG 2400 -304 D0A
FLAG 2448 -304 DNA
FLAG 2208 -336 0
FLAG 4032 -368 0
FLAG 3824 -368 OUTavg3
FLAG 2656 -304 DPA
FLAG 2704 -304 D0A
FLAG 2752 -304 DNA
FLAG 2960 -304 DPA
FLAG 3008 -304 D0A
FLAG 3056 -304 DNA
FLAG 3264 -304 DPA
FLAG 3312 -304 D0A
FLAG 3360 -304 DNA
FLAG 2640 -1216 DA
FLAG 2944 -912 DA
FLAG 3248 -608 DA
FLAG 3552 -304 DA
FLAG 2352 0 DPA
FLAG 2400 0 D0A
FLAG 2448 0 DNA
FLAG 2208 -32 0
FLAG 4032 -64 0
FLAG 3824 -64 OUTavg4
FLAG 2656 0 DPA
FLAG 2704 0 D0A
FLAG 2752 0 DNA
FLAG 2960 0 DPA
FLAG 3008 0 D0A
FLAG 3056 0 DNA
FLAG 3264 0 DPA
FLAG 3312 0 D0A
FLAG 3360 0 DNA
SYMBOL bv 2208 -1392 M0
SYMATTR InstName Vgavg
SYMATTR Value V={Vdc}
SYMBOL PN_average_model 2400 -1344 R0
SYMATTR InstName XA1
SYMATTR SpiceLine C={C} RP={RP} R0H={R0H} R0L={R0L} RN={RN}
SYMBOL voltage 1712 -1392 M0
WINDOW 0 24 16 Invisible 2
WINDOW 3 39 54 Left 2
SYMATTR InstName V1
SYMATTR Value SINE(0 {ma} {f1} 0 0 180)
SYMBOL voltage 1712 -1312 M0
WINDOW 0 24 16 Invisible 2
WINDOW 3 39 53 Left 2
SYMATTR InstName V7
SYMATTR Value SINE(0 {0*ma/6} {3*f1} 0 0 180)
SYMBOL PN_average_modulator 1824 -1344 R0
WINDOW 0 8 -56 Invisible 2
SYMATTR InstName X2
SYMBOL current 3904 -1280 M90
WINDOW 123 0 0 Left 2
WINDOW 39 0 0 Left 2
WINDOW 3 52 -137 VRight 2
WINDOW 0 -53 -4 VRight 2
SYMATTR Value SINE(0 {16*sqrt(2)} 50 0 0 170)
SYMATTR InstName ILoadavg
SYMBOL bv 2208 -1088 M0
SYMATTR InstName Vgavg1
SYMATTR Value V={Vdc}
SYMBOL PN_average_model 2400 -1040 R0
SYMATTR InstName XA4
SYMATTR SpiceLine C={2*C} RP={RP/2} R0H={R0H/2} R0L={R0L/2} RN={RN/2}
SYMBOL current 3904 -976 M90
WINDOW 123 0 0 Left 2
WINDOW 39 0 0 Left 2
WINDOW 3 52 -137 VRight 2
WINDOW 0 -53 -4 VRight 2
SYMATTR Value SINE(0 {16*sqrt(2)} 50 0 0 170)
SYMATTR InstName ILoadavg1
SYMBOL PN_average_model 2704 -1040 R0
SYMATTR InstName XA5
SYMATTR SpiceLine C={C} RP={RP} R0H={R0H} R0L={R0L} RN={RN}
SYMBOL bv 2208 -784 M0
SYMATTR InstName Vgavg2
SYMATTR Value V={Vdc}
SYMBOL PN_average_model 2400 -736 R0
SYMATTR InstName XA7
SYMATTR SpiceLine C={C*3} RP={RP/3} R0H={R0H/3} R0L={R0L/3} RN={RN/3}
SYMBOL current 3904 -672 M90
WINDOW 123 0 0 Left 2
WINDOW 39 0 0 Left 2
WINDOW 3 52 -137 VRight 2
WINDOW 0 -53 -4 VRight 2
SYMATTR Value SINE(0 {16*sqrt(2)} 50 0 0 170)
SYMATTR InstName ILoadavg2
SYMBOL PN_average_model 2704 -736 R0
SYMATTR InstName XA8
SYMATTR SpiceLine C={C*2} RP={RP/2} R0H={R0H/2} R0L={R0L/2} RN={RN/2}
SYMBOL PN_average_model 3008 -736 R0
SYMATTR InstName XA9
SYMATTR SpiceLine C={C} RP={RP} R0H={R0H} R0L={R0L} RN={RN}
SYMBOL bv 2208 -480 M0
SYMATTR InstName Vgavg3
SYMATTR Value V={Vdc}
SYMBOL PN_average_model 2400 -432 R0
SYMATTR InstName XA10
SYMATTR SpiceLine C={C*4} RP={RP/4} R0H={R0H/4} R0L={R0L/4} RN={RN/4}
SYMBOL current 3904 -368 M90
WINDOW 123 0 0 Left 2
WINDOW 39 0 0 Left 2
WINDOW 3 52 -137 VRight 2
WINDOW 0 -53 -4 VRight 2
SYMATTR Value SINE(0 {16*sqrt(2)} 50 0 0 170)
SYMATTR InstName ILoadavg3
SYMBOL PN_average_model 2704 -432 R0
SYMATTR InstName XA11
SYMATTR SpiceLine C={C*3} RP={RP/3} R0H={R0H/3} R0L={R0L/3} RN={RN/3}
SYMBOL PN_average_model 3008 -432 R0
SYMATTR InstName XA12
SYMATTR SpiceLine C={C*2} RP={RP/2} R0H={R0H/2} R0L={R0L/2} RN={RN/2}
SYMBOL PN_average_model 3312 -432 R0
SYMATTR InstName XA13
SYMATTR SpiceLine C={C} RP={RP} R0H={R0H} R0L={R0L} RN={RN}
SYMBOL 2L_average_model 2640 -1360 R0
SYMATTR InstName XA2
SYMBOL 2L_average_model 2944 -1056 R0
SYMATTR InstName XA3
SYMBOL 2L_average_model 3248 -752 R0
SYMATTR InstName XA6
SYMBOL 2L_average_model 3552 -448 R0
SYMATTR InstName XA14
SYMBOL bv 2208 -176 M0
SYMATTR InstName Vgavg4
SYMATTR Value V={Vdc}
SYMBOL PN_average_model 2400 -128 R0
SYMATTR InstName XA15
SYMATTR SpiceLine C={C*4} RP={RP/4} R0H={R0H/4} R0L={R0L/4} RN={RN/4}
SYMBOL current 3904 -64 M90
WINDOW 123 0 0 Left 2
WINDOW 39 0 0 Left 2
WINDOW 3 52 -137 VRight 2
WINDOW 0 -53 -4 VRight 2
SYMATTR Value SINE(0 {16*sqrt(2)} 50 0 0 170)
SYMATTR InstName ILoadavg4
SYMBOL PN_average_model 2704 -128 R0
SYMATTR InstName XA16
SYMATTR SpiceLine C={C*3} RP={RP/3} R0H={R0H/3} R0L={R0L/3} RN={RN/3}
SYMBOL PN_average_model 3008 -128 R0
SYMATTR InstName XA17
SYMATTR SpiceLine C={C*2} RP={RP/2} R0H={R0H/2} R0L={R0L/2} RN={RN/2}
SYMBOL PN_average_model 3312 -128 R0
SYMATTR InstName XA18
SYMATTR SpiceLine C={C} RP={RP} R0H={R0H} R0L={R0L} RN={RN}
TEXT 1640 -1048 Left 2 !.param Ts=50us
TEXT 1640 -1144 Left 2 !.tran 0 80m 40m
TEXT 1640 -1072 Left 2 !.param Vdc=400
TEXT 1640 -832 Left 2 !.param ma=0.62*k f1=50 k=2/sqrt(3)
TEXT 1640 -976 Left 2 !.param Rsw=100m
TEXT 1640 -952 Left 2 !.param RP=2*Rsw
TEXT 1640 -880 Left 2 !.param RN=2*Rsw
TEXT 1640 -928 Left 2 !.param R0H=2*Rsw
TEXT 1640 -904 Left 2 !.param R0L=Rsw
TEXT 1640 -1024 Left 2 !.param C=100u
TEXT 1640 -1120 Left 2 !.options reltol=1e-9
