Version 4
SHEET 1 4616 1844
WIRE 1744 -1376 1712 -1376
WIRE 1776 -1376 1744 -1376
WIRE 1920 -1376 1888 -1376
WIRE 1920 -1344 1888 -1344
WIRE 1920 -1312 1888 -1312
WIRE 2016 -1056 1936 -1056
WIRE 2064 -1056 2016 -1056
WIRE 2384 -1056 2320 -1056
WIRE 2448 -1056 2384 -1056
WIRE 2768 -1056 2704 -1056
WIRE 2832 -1056 2768 -1056
WIRE 1936 -1040 1936 -1056
WIRE 1936 -944 1936 -960
WIRE 2016 -944 1936 -944
WIRE 2064 -944 2016 -944
WIRE 2384 -944 2320 -944
WIRE 2448 -944 2384 -944
WIRE 2768 -944 2704 -944
WIRE 2880 -944 2768 -944
WIRE 3008 -944 2960 -944
WIRE 3136 -944 3088 -944
WIRE 1936 -912 1936 -944
WIRE 2144 -880 2144 -912
WIRE 2192 -880 2192 -912
WIRE 2240 -880 2240 -912
WIRE 2528 -880 2528 -912
WIRE 2576 -880 2576 -912
WIRE 2624 -880 2624 -912
FLAG 1920 -1376 DPA
FLAG 1920 -1344 D0A
FLAG 1920 -1312 DNA
FLAG 1712 -1216 0
FLAG 1744 -1376 DA
FLAG 2144 -880 DPA
FLAG 2192 -880 D0A
FLAG 2240 -880 DNA
FLAG 1936 -912 0
FLAG 2528 -880 DPA
FLAG 2576 -880 D0A
FLAG 2624 -880 DNA
FLAG 2016 -1056 HC01
FLAG 2384 -1056 HC12
FLAG 2768 -1056 HC23
FLAG 2016 -944 LC01
FLAG 2384 -944 LC12
FLAG 2768 -944 LC23
FLAG 3136 -944 0
SYMBOL voltage 1712 -1392 M0
WINDOW 0 24 16 Invisible 2
WINDOW 3 39 54 Left 2
SYMATTR InstName V1
SYMATTR Value SINE(0 {ma} {f1} 0 0 180)
SYMBOL voltage 1712 -1312 M0
WINDOW 0 24 16 Invisible 2
WINDOW 3 39 53 Left 2
SYMATTR InstName V7
SYMATTR Value SINE(0 {0*ma/6} {3*f1} 0 0 180)
SYMBOL PN_average_modulator 1824 -1344 R0
WINDOW 0 8 -56 Invisible 2
SYMATTR InstName X2
SYMBOL bv 1936 -1056 M0
SYMATTR InstName VgC
SYMATTR Value V={Vdc}
SYMBOL PN_average_model 2192 -1008 R0
SYMATTR InstName XC1
SYMATTR SpiceLine C={2*C} RP={RP} R0H={R0H} R0L={R0L} RN={RN}
SYMBOL PN_average_model 2576 -1008 R0
SYMATTR InstName XC2
SYMATTR SpiceLine C={C} RP={RP} R0H={R0H} R0L={R0L} RN={RN}
SYMBOL ind 2864 -928 R270
WINDOW 0 32 56 VTop 2
WINDOW 3 5 56 VBottom 2
SYMATTR InstName L2
SYMATTR Value 6m
SYMBOL Misc/EuropeanResistor 3104 -960 R90
WINDOW 0 5 56 VBottom 2
WINDOW 3 27 56 VTop 2
SYMATTR InstName R2
SYMATTR Value 58
TEXT 1480 -1000 Left 2 !.param Ts=50us
TEXT 1480 -1096 Left 2 !.tran 0 1280m 1240m
TEXT 1480 -1024 Left 2 !.param Vdc=201
TEXT 1480 -752 Left 2 !.param ma=0.681 f1=50
TEXT 1480 -904 Left 2 !.param RP=k*102m\n.param R0H=k*60m\n.param R0L=k*44m\n.param RN=k*102m\n.param k=2
TEXT 1480 -976 Left 2 !.param C=110u
TEXT 1480 -1072 Left 2 !.options reltol=1e-12
