Version 4
SHEET 1 4356 1844
WIRE 1872 -1504 1808 -1504
WIRE 2176 -1504 2128 -1504
WIRE 2480 -1504 2432 -1504
WIRE 1280 -1488 1248 -1488
WIRE 1312 -1488 1280 -1488
WIRE 1456 -1488 1424 -1488
WIRE 1808 -1488 1808 -1504
WIRE 1456 -1456 1424 -1456
WIRE 1456 -1424 1424 -1424
WIRE 1808 -1392 1808 -1408
WIRE 1872 -1392 1808 -1392
WIRE 2176 -1392 2128 -1392
WIRE 2480 -1392 2432 -1392
WIRE 2656 -1392 2608 -1392
WIRE 2768 -1392 2736 -1392
WIRE 2880 -1392 2848 -1392
WIRE 1808 -1360 1808 -1392
WIRE 1952 -1328 1952 -1360
WIRE 2000 -1328 2000 -1360
WIRE 2048 -1328 2048 -1360
WIRE 2256 -1328 2256 -1360
WIRE 2304 -1328 2304 -1360
WIRE 2352 -1328 2352 -1360
WIRE 2544 -1328 2544 -1360
WIRE 1872 -1200 1808 -1200
WIRE 2176 -1200 2128 -1200
WIRE 2480 -1200 2432 -1200
WIRE 1280 -1184 1248 -1184
WIRE 1312 -1184 1280 -1184
WIRE 1456 -1184 1424 -1184
WIRE 1808 -1184 1808 -1200
WIRE 1456 -1152 1424 -1152
WIRE 1456 -1120 1424 -1120
WIRE 1808 -1088 1808 -1104
WIRE 1872 -1088 1808 -1088
WIRE 2176 -1088 2128 -1088
WIRE 2480 -1088 2432 -1088
WIRE 2656 -1088 2608 -1088
WIRE 2768 -1088 2736 -1088
WIRE 2880 -1088 2880 -1392
WIRE 2880 -1088 2848 -1088
WIRE 1808 -1056 1808 -1088
WIRE 1952 -1024 1952 -1056
WIRE 2000 -1024 2000 -1056
WIRE 2048 -1024 2048 -1056
WIRE 2256 -1024 2256 -1056
WIRE 2304 -1024 2304 -1056
WIRE 2352 -1024 2352 -1056
WIRE 2544 -1024 2544 -1056
WIRE 1280 -896 1248 -896
WIRE 1312 -896 1280 -896
WIRE 1456 -896 1424 -896
WIRE 1872 -880 1808 -880
WIRE 2176 -880 2128 -880
WIRE 2480 -880 2432 -880
WIRE 1456 -864 1424 -864
WIRE 1808 -864 1808 -880
WIRE 1456 -832 1424 -832
WIRE 1808 -768 1808 -784
WIRE 1872 -768 1808 -768
WIRE 2176 -768 2128 -768
WIRE 2480 -768 2432 -768
WIRE 2656 -768 2608 -768
WIRE 2768 -768 2736 -768
WIRE 2880 -768 2880 -1088
WIRE 2880 -768 2848 -768
WIRE 1808 -736 1808 -768
WIRE 1952 -704 1952 -736
WIRE 2000 -704 2000 -736
WIRE 2048 -704 2048 -736
WIRE 2256 -704 2256 -736
WIRE 2304 -704 2304 -736
WIRE 2352 -704 2352 -736
WIRE 2544 -704 2544 -736
FLAG 1456 -1488 DPA
FLAG 1456 -1456 D0A
FLAG 1456 -1424 DNA
FLAG 1952 -1328 DPA
FLAG 2000 -1328 D0A
FLAG 2048 -1328 DNA
FLAG 1808 -1360 0
FLAG 1952 -1024 DPB
FLAG 2000 -1024 D0B
FLAG 2048 -1024 DNB
FLAG 1808 -1056 0
FLAG 1952 -704 DPC
FLAG 2000 -704 D0C
FLAG 2048 -704 DNC
FLAG 1808 -736 0
FLAG 1248 -1328 0
FLAG 2256 -1328 DPA
FLAG 2304 -1328 D0A
FLAG 2352 -1328 DNA
FLAG 1456 -1184 DPB
FLAG 1456 -1152 D0B
FLAG 1456 -1120 DNB
FLAG 1248 -1024 0
FLAG 1456 -896 DPC
FLAG 1456 -864 D0C
FLAG 1456 -832 DNC
FLAG 1248 -736 0
FLAG 2256 -1024 DPB
FLAG 2304 -1024 D0B
FLAG 2352 -1024 DNB
FLAG 2256 -704 DPC
FLAG 2304 -704 D0C
FLAG 2352 -704 DNC
FLAG 1280 -896 DC
FLAG 1280 -1184 DB
FLAG 1280 -1488 DA
FLAG 2544 -1328 DA
FLAG 2544 -1024 DB
FLAG 2544 -704 DC
SYMBOL bv 1808 -1504 M0
SYMATTR InstName VgA
SYMATTR Value V={Vdc}
SYMBOL Misc/EuropeanResistor 2640 -1376 R270
WINDOW 0 27 56 VTop 2
WINDOW 3 5 56 VBottom 2
SYMATTR InstName RA
SYMATTR Value 45
SYMBOL ind 2752 -1376 R270
WINDOW 0 32 56 VTop 2
WINDOW 3 5 56 VBottom 2
SYMATTR InstName LA
SYMATTR Value 10m
SYMBOL PN_average_model 2000 -1456 R0
SYMATTR InstName XA1
SYMATTR SpiceLine C={C} RP={RP} R0H={R0H} R0L={R0L} RN={RN}
SYMBOL PN_average_model 2304 -1456 R0
SYMATTR InstName XA2
SYMATTR SpiceLine C={C} RP={RP} R0H={R0H} R0L={R0L} RN={RN}
SYMBOL bv 1808 -1200 M0
SYMATTR InstName VgB
SYMATTR Value V={Vdc}
SYMBOL Misc/EuropeanResistor 2640 -1072 R270
WINDOW 0 27 56 VTop 2
WINDOW 3 5 56 VBottom 2
SYMATTR InstName RB
SYMATTR Value 45
SYMBOL ind 2752 -1072 R270
WINDOW 0 32 56 VTop 2
WINDOW 3 5 56 VBottom 2
SYMATTR InstName LB
SYMATTR Value 10m
SYMBOL PN_average_model 2000 -1152 R0
SYMATTR InstName XB1
SYMATTR SpiceLine C={C} RP={RP} R0H={R0H} R0L={R0L} RN={RN}
SYMBOL PN_average_model 2304 -1152 R0
SYMATTR InstName XB2
SYMATTR SpiceLine C={C} RP={RP} R0H={R0H} R0L={R0L} RN={RN}
SYMBOL bv 1808 -880 M0
SYMATTR InstName VgC
SYMATTR Value V={Vdc}
SYMBOL Misc/EuropeanResistor 2640 -752 R270
WINDOW 0 27 56 VTop 2
WINDOW 3 5 56 VBottom 2
SYMATTR InstName RC
SYMATTR Value 45
SYMBOL ind 2752 -752 R270
WINDOW 0 32 56 VTop 2
WINDOW 3 5 56 VBottom 2
SYMATTR InstName LC
SYMATTR Value 10m
SYMBOL PN_average_model 2000 -832 R0
SYMATTR InstName XC1
SYMATTR SpiceLine C={C} RP={RP} R0H={R0H} R0L={R0L} RN={RN}
SYMBOL PN_average_model 2304 -832 R0
SYMATTR InstName XC2
SYMATTR SpiceLine C={C} RP={RP} R0H={R0H} R0L={R0L} RN={RN}
SYMBOL voltage 1248 -1504 M0
WINDOW 0 24 16 Invisible 2
WINDOW 3 39 54 Left 2
SYMATTR InstName V1
SYMATTR Value SINE(0 {ma} {f1} 0 0 0)
SYMBOL voltage 1248 -1424 M0
WINDOW 0 24 16 Invisible 2
WINDOW 3 39 53 Left 2
SYMATTR InstName V2
SYMATTR Value SINE(0 {ma/6} {3*f1} 0 0 0)
SYMBOL voltage 1248 -1200 M0
WINDOW 0 24 16 Invisible 2
WINDOW 3 39 54 Left 2
SYMATTR InstName V3
SYMATTR Value SINE(0 {ma} {f1} 0 0 120)
SYMBOL voltage 1248 -1120 M0
WINDOW 0 24 16 Invisible 2
WINDOW 3 39 53 Left 2
SYMATTR InstName V4
SYMATTR Value SINE(0 {ma/6} {3*f1} 0 0 0)
SYMBOL voltage 1248 -912 M0
WINDOW 0 24 16 Invisible 2
WINDOW 3 39 54 Left 2
SYMATTR InstName V5
SYMATTR Value SINE(0 {ma} {f1} 0 0 -120)
SYMBOL voltage 1248 -832 M0
WINDOW 0 24 16 Invisible 2
WINDOW 3 39 53 Left 2
SYMATTR InstName V6
SYMATTR Value SINE(0 {ma/6} {3*f1} 0 0 0)
SYMBOL 2L_average_model 2544 -1472 R0
SYMATTR InstName XA3
SYMBOL 2L_average_model 2544 -1168 R0
SYMATTR InstName XB3
SYMBOL 2L_average_model 2544 -848 R0
SYMATTR InstName XC3
SYMBOL PN_average_modulator 1360 -1456 R0
WINDOW 0 8 -56 Invisible 2
SYMATTR InstName X1
SYMBOL PN_average_modulator 1360 -1152 R0
WINDOW 0 8 -56 Invisible 2
SYMATTR InstName X2
SYMBOL PN_average_modulator 1360 -864 R0
WINDOW 0 8 -56 Invisible 2
SYMATTR InstName X3
TEXT 3080 -1464 Left 2 !.param Ts=50us
TEXT 3080 -1536 Left 2 !.tran 0 40m 010u
TEXT 3080 -1488 Left 2 !.param Vdc=400
TEXT 3080 -1248 Left 2 !.param ma=0.62*k f1=50 k=2/sqrt(3)
TEXT 3080 -1392 Left 2 !.param Rsw=100m
TEXT 3080 -1368 Left 2 !.param RP=2*Rsw
TEXT 3080 -1296 Left 2 !.param RN=2*Rsw
TEXT 3080 -1344 Left 2 !.param R0H=2*Rsw
TEXT 3080 -1320 Left 2 !.param R0L=Rsw
TEXT 3080 -1440 Left 2 !.param C=100u
