Version 4
SHEET 1 4356 1844
WIRE 1008 -1488 944 -1488
WIRE 1312 -1488 1264 -1488
WIRE 1616 -1488 1568 -1488
WIRE 1920 -1488 1872 -1488
WIRE 2224 -1488 2176 -1488
WIRE 2528 -1488 2480 -1488
WIRE 544 -1472 480 -1472
WIRE 688 -1472 656 -1472
WIRE 944 -1472 944 -1488
WIRE 688 -1440 656 -1440
WIRE 688 -1408 656 -1408
WIRE 944 -1376 944 -1392
WIRE 1008 -1376 944 -1376
WIRE 1312 -1376 1264 -1376
WIRE 1616 -1376 1568 -1376
WIRE 1920 -1376 1872 -1376
WIRE 2224 -1376 2176 -1376
WIRE 2528 -1376 2480 -1376
WIRE 2640 -1376 2608 -1376
WIRE 2752 -1376 2720 -1376
WIRE 944 -1344 944 -1376
WIRE 1088 -1312 1088 -1344
WIRE 1136 -1312 1136 -1344
WIRE 1184 -1312 1184 -1344
WIRE 1392 -1312 1392 -1344
WIRE 1440 -1312 1440 -1344
WIRE 1488 -1312 1488 -1344
WIRE 1696 -1312 1696 -1344
WIRE 1744 -1312 1744 -1344
WIRE 1792 -1312 1792 -1344
WIRE 2000 -1312 2000 -1344
WIRE 2048 -1312 2048 -1344
WIRE 2096 -1312 2096 -1344
WIRE 2304 -1312 2304 -1344
WIRE 2352 -1312 2352 -1344
WIRE 2400 -1312 2400 -1344
WIRE 1008 -1184 944 -1184
WIRE 1312 -1184 1264 -1184
WIRE 1616 -1184 1568 -1184
WIRE 1920 -1184 1872 -1184
WIRE 2224 -1184 2176 -1184
WIRE 2528 -1184 2480 -1184
WIRE 544 -1168 480 -1168
WIRE 688 -1168 656 -1168
WIRE 944 -1168 944 -1184
WIRE 688 -1136 656 -1136
WIRE 688 -1104 656 -1104
WIRE 944 -1072 944 -1088
WIRE 1008 -1072 944 -1072
WIRE 1312 -1072 1264 -1072
WIRE 1616 -1072 1568 -1072
WIRE 1920 -1072 1872 -1072
WIRE 2224 -1072 2176 -1072
WIRE 2528 -1072 2480 -1072
WIRE 2640 -1072 2608 -1072
WIRE 2752 -1072 2752 -1376
WIRE 2752 -1072 2720 -1072
WIRE 944 -1040 944 -1072
WIRE 1088 -1008 1088 -1040
WIRE 1136 -1008 1136 -1040
WIRE 1184 -1008 1184 -1040
WIRE 1392 -1008 1392 -1040
WIRE 1440 -1008 1440 -1040
WIRE 1488 -1008 1488 -1040
WIRE 1696 -1008 1696 -1040
WIRE 1744 -1008 1744 -1040
WIRE 1792 -1008 1792 -1040
WIRE 2000 -1008 2000 -1040
WIRE 2048 -1008 2048 -1040
WIRE 2096 -1008 2096 -1040
WIRE 2304 -1008 2304 -1040
WIRE 2352 -1008 2352 -1040
WIRE 2400 -1008 2400 -1040
WIRE 544 -880 480 -880
WIRE 688 -880 656 -880
WIRE 1008 -864 944 -864
WIRE 1312 -864 1264 -864
WIRE 1616 -864 1568 -864
WIRE 1920 -864 1872 -864
WIRE 2224 -864 2176 -864
WIRE 2528 -864 2480 -864
WIRE 688 -848 656 -848
WIRE 944 -848 944 -864
WIRE 688 -816 656 -816
WIRE 944 -752 944 -768
WIRE 1008 -752 944 -752
WIRE 1312 -752 1264 -752
WIRE 1616 -752 1568 -752
WIRE 1920 -752 1872 -752
WIRE 2224 -752 2176 -752
WIRE 2528 -752 2480 -752
WIRE 2640 -752 2608 -752
WIRE 2752 -752 2752 -1072
WIRE 2752 -752 2720 -752
WIRE 944 -720 944 -752
WIRE 1088 -688 1088 -720
WIRE 1136 -688 1136 -720
WIRE 1184 -688 1184 -720
WIRE 1392 -688 1392 -720
WIRE 1440 -688 1440 -720
WIRE 1488 -688 1488 -720
WIRE 1696 -688 1696 -720
WIRE 1744 -688 1744 -720
WIRE 1792 -688 1792 -720
WIRE 2000 -688 2000 -720
WIRE 2048 -688 2048 -720
WIRE 2096 -688 2096 -720
WIRE 2304 -688 2304 -720
WIRE 2352 -688 2352 -720
WIRE 2400 -688 2400 -720
FLAG 688 -1472 DPA
FLAG 688 -1440 D0A
FLAG 688 -1408 DNA
FLAG 1088 -1312 DPA
FLAG 1136 -1312 D0A
FLAG 1184 -1312 DNA
FLAG 944 -1344 0
FLAG 1088 -1008 DPB
FLAG 1136 -1008 D0B
FLAG 1184 -1008 DNB
FLAG 944 -1040 0
FLAG 1088 -688 DPC
FLAG 1136 -688 D0C
FLAG 1184 -688 DNC
FLAG 944 -720 0
FLAG 480 -1312 0
FLAG 1392 -1312 DPA
FLAG 1440 -1312 D0A
FLAG 1488 -1312 DNA
FLAG 1696 -1312 DPA
FLAG 1744 -1312 D0A
FLAG 1792 -1312 DNA
FLAG 688 -1168 DPB
FLAG 688 -1136 D0B
FLAG 688 -1104 DNB
FLAG 480 -1008 0
FLAG 688 -880 DPC
FLAG 688 -848 D0C
FLAG 688 -816 DNC
FLAG 480 -720 0
FLAG 1392 -1008 DPB
FLAG 1440 -1008 D0B
FLAG 1488 -1008 DNB
FLAG 1696 -1008 DPB
FLAG 1744 -1008 D0B
FLAG 1792 -1008 DNB
FLAG 1392 -688 DPC
FLAG 1440 -688 D0C
FLAG 1488 -688 DNC
FLAG 1696 -688 DPC
FLAG 1744 -688 D0C
FLAG 1792 -688 DNC
FLAG 2000 -1312 DPA
FLAG 2048 -1312 D0A
FLAG 2096 -1312 DNA
FLAG 2304 -1312 DPA
FLAG 2352 -1312 D0A
FLAG 2400 -1312 DNA
FLAG 2000 -1008 DPB
FLAG 2048 -1008 D0B
FLAG 2096 -1008 DNB
FLAG 2304 -1008 DPB
FLAG 2352 -1008 D0B
FLAG 2400 -1008 DNB
FLAG 2000 -688 DPC
FLAG 2048 -688 D0C
FLAG 2096 -688 DNC
FLAG 2304 -688 DPC
FLAG 2352 -688 D0C
FLAG 2400 -688 DNC
SYMBOL bv 944 -1488 M0
SYMATTR InstName VgA
SYMATTR Value V={Vdc}
SYMBOL Misc/EuropeanResistor 2512 -1360 R270
WINDOW 0 27 56 VTop 2
WINDOW 3 5 56 VBottom 2
SYMATTR InstName RA
SYMATTR Value 50
SYMBOL ind 2624 -1360 R270
WINDOW 0 32 56 VTop 2
WINDOW 3 5 56 VBottom 2
SYMATTR InstName LA
SYMATTR Value 10m
SYMBOL PN_average_model 1136 -1440 R0
SYMATTR InstName XA1
SYMATTR SpiceLine C={C} RP={RP} R0H={R0H} R0L={R0L} RN={RN}
SYMBOL PN_average_model 1440 -1440 R0
SYMATTR InstName XA2
SYMATTR SpiceLine C={C} RP={RP} R0H={R0H} R0L={R0L} RN={RN}
SYMBOL PN_average_model 1744 -1440 R0
SYMATTR InstName XA3
SYMATTR SpiceLine C={C} RP={RP} R0H={R0H} R0L={R0L} RN={RN}
SYMBOL bv 944 -1184 M0
SYMATTR InstName VgB
SYMATTR Value V={Vdc}
SYMBOL Misc/EuropeanResistor 2512 -1056 R270
WINDOW 0 27 56 VTop 2
WINDOW 3 5 56 VBottom 2
SYMATTR InstName RB
SYMATTR Value 50
SYMBOL ind 2624 -1056 R270
WINDOW 0 32 56 VTop 2
WINDOW 3 5 56 VBottom 2
SYMATTR InstName LB
SYMATTR Value 10m
SYMBOL PN_average_model 1136 -1136 R0
SYMATTR InstName XB1
SYMATTR SpiceLine C={C} RP={RP} R0H={R0H} R0L={R0L} RN={RN}
SYMBOL PN_average_model 1440 -1136 R0
SYMATTR InstName XB2
SYMATTR SpiceLine C={C} RP={RP} R0H={R0H} R0L={R0L} RN={RN}
SYMBOL PN_average_model 1744 -1136 R0
SYMATTR InstName XB3
SYMATTR SpiceLine C={C} RP={RP} R0H={R0H} R0L={R0L} RN={RN}
SYMBOL bv 944 -864 M0
SYMATTR InstName VgC
SYMATTR Value V={Vdc}
SYMBOL Misc/EuropeanResistor 2512 -736 R270
WINDOW 0 27 56 VTop 2
WINDOW 3 5 56 VBottom 2
SYMATTR InstName RC
SYMATTR Value 50
SYMBOL ind 2624 -736 R270
WINDOW 0 32 56 VTop 2
WINDOW 3 5 56 VBottom 2
SYMATTR InstName LC
SYMATTR Value 10m
SYMBOL PN_average_model 1136 -816 R0
SYMATTR InstName XC1
SYMATTR SpiceLine C={C} RP={RP} R0H={R0H} R0L={R0L} RN={RN}
SYMBOL PN_average_model 1440 -816 R0
SYMATTR InstName XC2
SYMATTR SpiceLine C={C} RP={RP} R0H={R0H} R0L={R0L} RN={RN}
SYMBOL PN_average_model 1744 -816 R0
SYMATTR InstName XC3
SYMATTR SpiceLine C={C} RP={RP} R0H={R0H} R0L={R0L} RN={RN}
SYMBOL voltage 480 -1488 M0
WINDOW 0 24 16 Invisible 2
WINDOW 3 39 54 Left 2
SYMATTR InstName V1
SYMATTR Value SINE(0 {ma} {f1} 0 0 0)
SYMBOL voltage 480 -1408 M0
WINDOW 0 24 16 Invisible 2
WINDOW 3 39 53 Left 2
SYMATTR InstName V2
SYMATTR Value SINE(0 {ma/6} {3*f1} 0 0 0)
SYMBOL voltage 480 -1184 M0
WINDOW 0 24 16 Invisible 2
WINDOW 3 39 54 Left 2
SYMATTR InstName V3
SYMATTR Value SINE(0 {ma} {f1} 0 0 120)
SYMBOL voltage 480 -1104 M0
WINDOW 0 24 16 Invisible 2
WINDOW 3 39 53 Left 2
SYMATTR InstName V4
SYMATTR Value SINE(0 {ma/6} {3*f1} 0 0 0)
SYMBOL voltage 480 -896 M0
WINDOW 0 24 16 Invisible 2
WINDOW 3 39 54 Left 2
SYMATTR InstName V5
SYMATTR Value SINE(0 {ma} {f1} 0 0 -120)
SYMBOL voltage 480 -816 M0
WINDOW 0 24 16 Invisible 2
WINDOW 3 39 53 Left 2
SYMATTR InstName V6
SYMATTR Value SINE(0 {ma/6} {3*f1} 0 0 0)
SYMBOL PN_average_modulator 592 -1440 R0
WINDOW 0 8 -56 Invisible 2
SYMATTR InstName X1
SYMBOL PN_average_modulator 592 -1136 R0
WINDOW 0 8 -56 Invisible 2
SYMATTR InstName X2
SYMBOL PN_average_modulator 592 -848 R0
WINDOW 0 8 -56 Invisible 2
SYMATTR InstName X3
SYMBOL PN_average_model 2048 -1440 R0
SYMATTR InstName XA4
SYMATTR SpiceLine C={C} RP={RP} R0H={R0H} R0L={R0L} RN={RN}
SYMBOL PN_average_model 2352 -1440 R0
SYMATTR InstName XA5
SYMATTR SpiceLine C={C} RP={RP} R0H={R0H} R0L={R0L} RN={RN}
SYMBOL PN_average_model 2048 -1136 R0
SYMATTR InstName XB4
SYMATTR SpiceLine C={C} RP={RP} R0H={R0H} R0L={R0L} RN={RN}
SYMBOL PN_average_model 2352 -1136 R0
SYMATTR InstName XB5
SYMATTR SpiceLine C={C} RP={RP} R0H={R0H} R0L={R0L} RN={RN}
SYMBOL PN_average_model 2048 -816 R0
SYMATTR InstName XC4
SYMATTR SpiceLine C={C} RP={RP} R0H={R0H} R0L={R0L} RN={RN}
SYMBOL PN_average_model 2352 -816 R0
SYMATTR InstName XC5
SYMATTR SpiceLine C={C} RP={RP} R0H={R0H} R0L={R0L} RN={RN}
TEXT 2824 -1448 Left 2 !.param Ts=50us
TEXT 2824 -1520 Left 2 !.tran 0 40m 010u
TEXT 2824 -1472 Left 2 !.param Vdc=400
TEXT 2824 -1232 Left 2 !.param ma=0.62*k f1=50 k=2/sqrt(3)
TEXT 2824 -1376 Left 2 !.param Rsw=100m
TEXT 2824 -1352 Left 2 !.param RP=2*Rsw
TEXT 2824 -1280 Left 2 !.param RN=2*Rsw
TEXT 2824 -1328 Left 2 !.param R0H=2*Rsw
TEXT 2824 -1304 Left 2 !.param R0L=Rsw
TEXT 2824 -1424 Left 2 !.param C=100u
