Version 4
SHEET 1 4356 1844
WIRE 1328 -672 1184 -672
WIRE 1632 -672 1584 -672
WIRE 1936 -672 1888 -672
WIRE 2240 -672 2192 -672
WIRE 2544 -672 2496 -672
WIRE 736 -656 704 -656
WIRE 768 -656 736 -656
WIRE 912 -656 880 -656
WIRE 912 -624 880 -624
WIRE 912 -592 880 -592
WIRE 1328 -560 1264 -560
WIRE 1632 -560 1584 -560
WIRE 1936 -560 1888 -560
WIRE 2240 -560 2192 -560
WIRE 2544 -560 2496 -560
WIRE 2736 -560 2672 -560
WIRE 2832 -560 2736 -560
WIRE 3072 -560 2912 -560
WIRE 1264 -528 1264 -560
WIRE 1408 -496 1408 -528
WIRE 1456 -496 1456 -528
WIRE 1504 -496 1504 -528
WIRE 1712 -496 1712 -528
WIRE 1760 -496 1760 -528
WIRE 1808 -496 1808 -528
WIRE 2016 -496 2016 -528
WIRE 2064 -496 2064 -528
WIRE 2112 -496 2112 -528
WIRE 2320 -496 2320 -528
WIRE 2368 -496 2368 -528
WIRE 2416 -496 2416 -528
WIRE 2608 -496 2608 -528
WIRE 1184 -368 1184 -672
WIRE 1328 -368 1184 -368
WIRE 1632 -368 1584 -368
WIRE 1936 -368 1888 -368
WIRE 2240 -368 2192 -368
WIRE 2544 -368 2496 -368
WIRE 736 -352 704 -352
WIRE 768 -352 736 -352
WIRE 912 -352 880 -352
WIRE 912 -320 880 -320
WIRE 912 -288 880 -288
WIRE 1328 -256 1264 -256
WIRE 1632 -256 1584 -256
WIRE 1936 -256 1888 -256
WIRE 2240 -256 2192 -256
WIRE 2544 -256 2496 -256
WIRE 2736 -256 2672 -256
WIRE 2832 -256 2736 -256
WIRE 3072 -256 3072 -560
WIRE 3072 -256 2912 -256
WIRE 1264 -224 1264 -256
WIRE 1408 -192 1408 -224
WIRE 1456 -192 1456 -224
WIRE 1504 -192 1504 -224
WIRE 1712 -192 1712 -224
WIRE 1760 -192 1760 -224
WIRE 1808 -192 1808 -224
WIRE 2016 -192 2016 -224
WIRE 2064 -192 2064 -224
WIRE 2112 -192 2112 -224
WIRE 2320 -192 2320 -224
WIRE 2368 -192 2368 -224
WIRE 2416 -192 2416 -224
WIRE 2608 -192 2608 -224
WIRE 736 -64 704 -64
WIRE 768 -64 736 -64
WIRE 912 -64 880 -64
WIRE 1184 -48 1184 -368
WIRE 1264 -48 1184 -48
WIRE 1328 -48 1264 -48
WIRE 1632 -48 1584 -48
WIRE 1936 -48 1888 -48
WIRE 2240 -48 2192 -48
WIRE 2544 -48 2496 -48
WIRE 912 -32 880 -32
WIRE 1184 -32 1184 -48
WIRE 912 0 880 0
WIRE 1184 64 1184 48
WIRE 1328 64 1184 64
WIRE 1632 64 1584 64
WIRE 1936 64 1888 64
WIRE 2240 64 2192 64
WIRE 2544 64 2496 64
WIRE 2736 64 2672 64
WIRE 2832 64 2736 64
WIRE 3072 64 3072 -256
WIRE 3072 64 2912 64
WIRE 1184 96 1184 64
WIRE 1408 128 1408 96
WIRE 1456 128 1456 96
WIRE 1504 128 1504 96
WIRE 1712 128 1712 96
WIRE 1760 128 1760 96
WIRE 1808 128 1808 96
WIRE 2016 128 2016 96
WIRE 2064 128 2064 96
WIRE 2112 128 2112 96
WIRE 2320 128 2320 96
WIRE 2368 128 2368 96
WIRE 2416 128 2416 96
WIRE 2608 128 2608 96
FLAG 912 -656 DPA
FLAG 912 -624 D0A
FLAG 912 -592 DNA
FLAG 1408 -496 DPA
FLAG 1456 -496 D0A
FLAG 1504 -496 DNA
FLAG 1264 -528 0
FLAG 1408 -192 DPB
FLAG 1456 -192 D0B
FLAG 1504 -192 DNB
FLAG 1264 -224 0
FLAG 1408 128 DPC
FLAG 1456 128 D0C
FLAG 1504 128 DNC
FLAG 1184 96 0
FLAG 704 -496 0
FLAG 1712 -496 DPA
FLAG 1760 -496 D0A
FLAG 1808 -496 DNA
FLAG 912 -352 DPB
FLAG 912 -320 D0B
FLAG 912 -288 DNB
FLAG 704 -192 0
FLAG 912 -64 DPC
FLAG 912 -32 D0C
FLAG 912 0 DNC
FLAG 704 96 0
FLAG 1712 -192 DPB
FLAG 1760 -192 D0B
FLAG 1808 -192 DNB
FLAG 1712 128 DPC
FLAG 1760 128 D0C
FLAG 1808 128 DNC
FLAG 736 -64 DC
FLAG 736 -352 DB
FLAG 736 -656 DA
FLAG 2608 -496 DA
FLAG 2608 -192 DB
FLAG 2608 128 DC
FLAG 2736 -560 VA
FLAG 2736 -256 VB
FLAG 2736 64 VC
FLAG 2016 -496 DPA
FLAG 2064 -496 D0A
FLAG 2112 -496 DNA
FLAG 2016 -192 DPB
FLAG 2064 -192 D0B
FLAG 2112 -192 DNB
FLAG 2016 128 DPC
FLAG 2064 128 D0C
FLAG 2112 128 DNC
FLAG 2320 -496 DPA
FLAG 2368 -496 D0A
FLAG 2416 -496 DNA
FLAG 2320 -192 DPB
FLAG 2368 -192 D0B
FLAG 2416 -192 DNB
FLAG 2320 128 DPC
FLAG 2368 128 D0C
FLAG 2416 128 DNC
FLAG 1264 -48 in
SYMBOL PN_average_model 1456 -624 R0
SYMATTR InstName XA3
SYMATTR SpiceLine C={4*C} RP={RP/4} R0H={R0H/4} R0L={R0L/4} RN={RN/4}
SYMBOL PN_average_model 1760 -624 R0
SYMATTR InstName XA4
SYMATTR SpiceLine C={3*C} RP={RP/3} R0H={R0H/3} R0L={R0L/3} RN={RN/3}
SYMBOL PN_average_model 1456 -320 R0
SYMATTR InstName XB1
SYMATTR SpiceLine C={4*C} RP={RP/4} R0H={R0H/4} R0L={R0L/4} RN={RN/4}
SYMBOL PN_average_model 1760 -320 R0
SYMATTR InstName XB2
SYMATTR SpiceLine C={3*C} RP={RP/3} R0H={R0H/3} R0L={R0L/3} RN={RN/3}
SYMBOL bv 1184 -48 M0
SYMATTR InstName VgC1
SYMATTR Value V={Vdc}
SYMBOL PN_average_model 1456 0 R0
SYMATTR InstName XC1
SYMATTR SpiceLine C={4*C} RP={RP/4} R0H={R0H/4} R0L={R0L/4} RN={RN/4}
SYMBOL PN_average_model 1760 0 R0
SYMATTR InstName XC2
SYMATTR SpiceLine C={3*C} RP={RP/3} R0H={R0H/3} R0L={R0L/3} RN={RN/3}
SYMBOL voltage 704 -672 M0
WINDOW 0 24 16 Invisible 2
WINDOW 3 39 54 Left 2
SYMATTR InstName V2
SYMATTR Value SINE(0 {ma} {f1} 0 0 0)
SYMBOL voltage 704 -592 M0
WINDOW 0 24 16 Invisible 2
WINDOW 3 39 53 Left 2
SYMATTR InstName V3
SYMATTR Value SINE(0 {0*ma/6} {3*f1} 0 0 0)
SYMBOL voltage 704 -368 M0
WINDOW 0 24 16 Invisible 2
WINDOW 3 39 54 Left 2
SYMATTR InstName V4
SYMATTR Value SINE(0 {ma} {f1} 0 0 120)
SYMBOL voltage 704 -288 M0
WINDOW 0 24 16 Invisible 2
WINDOW 3 39 53 Left 2
SYMATTR InstName V5
SYMATTR Value SINE(0 {0*ma/6} {3*f1} 0 0 0)
SYMBOL voltage 704 -80 M0
WINDOW 0 24 16 Invisible 2
WINDOW 3 39 54 Left 2
SYMATTR InstName V6
SYMATTR Value SINE(0 {ma} {f1} 0 0 -120)
SYMBOL voltage 704 0 M0
WINDOW 0 24 16 Invisible 2
WINDOW 3 39 53 Left 2
SYMATTR InstName V8
SYMATTR Value SINE(0 {0*ma/6} {3*f1} 0 0 0)
SYMBOL 2L_average_model 2608 -640 R0
SYMATTR InstName XA5
SYMBOL 2L_average_model 2608 -336 R0
SYMATTR InstName XB3
SYMBOL 2L_average_model 2608 -16 R0
SYMATTR InstName XC3
SYMBOL PN_average_modulator 816 -624 R0
WINDOW 0 8 -56 Invisible 2
SYMATTR InstName X1
SYMBOL PN_average_modulator 816 -320 R0
WINDOW 0 8 -56 Invisible 2
SYMATTR InstName X3
SYMBOL PN_average_modulator 816 -32 R0
WINDOW 0 8 -56 Invisible 2
SYMATTR InstName X4
SYMBOL current 2832 -560 M90
WINDOW 123 0 0 Left 2
WINDOW 39 0 0 Left 2
WINDOW 3 52 -137 VRight 2
WINDOW 0 -54 -10 VRight 2
SYMATTR Value SINE(0 {Iload} 50 0 0 90)
SYMATTR InstName IA
SYMBOL current 2832 -256 M90
WINDOW 123 0 0 Left 2
WINDOW 39 0 0 Left 2
WINDOW 3 52 -137 VRight 2
WINDOW 0 -54 -10 VRight 2
SYMATTR Value SINE(0 {Iload} 50 0 0 210)
SYMATTR InstName IB
SYMBOL current 2832 64 M90
WINDOW 123 0 0 Left 2
WINDOW 39 0 0 Left 2
WINDOW 3 52 -137 VRight 2
WINDOW 0 -54 -10 VRight 2
SYMATTR Value SINE(0 {Iload} 50 0 0 -30)
SYMATTR InstName IC
SYMBOL PN_average_model 2064 -624 R0
SYMATTR InstName XA1
SYMATTR SpiceLine C={2*C} RP={RP/2} R0H={R0H/2} R0L={R0L/2} RN={RN/2}
SYMBOL PN_average_model 2368 -624 R0
SYMATTR InstName XA2
SYMATTR SpiceLine C={C} RP={RP} R0H={R0H} R0L={R0L} RN={RN}
SYMBOL PN_average_model 2064 -320 R0
SYMATTR InstName XB4
SYMATTR SpiceLine C={2*C} RP={RP/2} R0H={R0H/2} R0L={R0L/2} RN={RN/2}
SYMBOL PN_average_model 2368 -320 R0
SYMATTR InstName XB5
SYMATTR SpiceLine C={C} RP={RP} R0H={R0H} R0L={R0L} RN={RN}
SYMBOL PN_average_model 2064 0 R0
SYMATTR InstName XC4
SYMATTR SpiceLine C={2*C} RP={RP/2} R0H={R0H/2} R0L={R0L/2} RN={RN/2}
SYMBOL PN_average_model 2368 0 R0
SYMATTR InstName XC5
SYMATTR SpiceLine C={C} RP={RP} R0H={R0H} R0L={R0L} RN={RN}
TEXT 3120 -576 Left 2 !.param Ts=400us
TEXT 3120 -672 Left 2 !.tran 0 40m
TEXT 3120 -600 Left 2 !.param Vdc=1900
TEXT 3120 -360 Left 2 !.param ma=0.8 f1=50
TEXT 3120 -504 Left 2 !.param Rsw=2.5m
TEXT 3120 -480 Left 2 !.param RP=2*Rsw
TEXT 3120 -408 Left 2 !.param RN=2*Rsw
TEXT 3120 -456 Left 2 !.param R0H=2*Rsw
TEXT 3120 -432 Left 2 !.param R0L=Rsw
TEXT 3120 -552 Left 2 !.param C=1u
TEXT 3120 -648 Left 2 !.options reltol=1e-6
TEXT 3120 -336 Left 2 !.param iload 1000
